systems/ieee39/01GFM/IEEE 39 bus_szVsched_mbase.RAW
@!IC,SBASE,REV,XFRRAT,NXFRAT,BASFRQ
0,  100.00, 35,     0,     0, 60.00     / PSS(R)E-35.6    WED, APR 29 2026  10:45
NEW ENGLAND TEST SYSTEM, 39 BUSES, 9 GENERATORS
CREATED BY PABLO LEDESMA PABLOLE@ING.UC3M.ES
GENERAL, THRSHZ=0.0001, PQBRAK=0.7, BLOWUP=5.0, MaxIsolLvls=4, CAMaxReptSln=20, ChkDupCntLbl=0
GAUSS, ITMX=100, ACCP=1.6, ACCQ=1.6, ACCM=1.0, TOL=0.0001
NEWTON, ITMXN=20, ACCN=1.0, TOLN=0.1, VCTOLQ=0.1, VCTOLV=0.00001, DVLIM=0.99, NDVFCT=0.99
ADJUST, ADJTHR=0.005, ACCTAP=1.0, TAPLIM=0.05, SWVBND=100.0, MXTPSS=99, MXSWIM=10
TYSL, ITMXTY=20, ACCTY=1.0, TOLTY=0.00001
SOLVER, FNSL, ACTAPS=0, AREAIN=0, PHSHFT=0, DCTAPS=1, SWSHNT=1, FLATST=0, VARLIM=99, NONDIV=0
RATING, 1, "RATE1 ", "RATING SET 1                    "
RATING, 2, "RATE2 ", "RATING SET 2                    "
RATING, 3, "RATE3 ", "RATING SET 3                    "
RATING, 4, "RATE4 ", "RATING SET 4                    "
RATING, 5, "RATE5 ", "RATING SET 5                    "
RATING, 6, "RATE6 ", "RATING SET 6                    "
RATING, 7, "RATE7 ", "RATING SET 7                    "
RATING, 8, "RATE8 ", "RATING SET 8                    "
RATING, 9, "RATE9 ", "RATING SET 9                    "
RATING,10, "RATE10", "RATING SET 10                   "
RATING,11, "RATE11", "RATING SET 11                   "
RATING,12, "RATE12", "RATING SET 12                   "
0 / END OF SYSTEM-WIDE DATA, BEGIN BUS DATA
@!   I,'NAME        ', BASKV, IDE,AREA,ZONE,OWNER, VM,        VA,    NVHI,   NVLO,   EVHI,   EVLO
     1,'1           ', 230.0000,1,   1,   1,   1,1.04985,  -8.7771,1.10000,0.90000,1.10000,0.90000
     2,'2           ', 230.0000,1,   1,   1,   1,1.05477,  -6.3358,1.10000,0.90000,1.10000,0.90000
     3,'3           ', 230.0000,1,   1,   1,   1,1.04377,  -9.1665,1.10000,0.90000,1.10000,0.90000
     4,'4           ', 230.0000,1,   1,   1,   1,1.03210,  -9.8756,1.10000,0.90000,1.10000,0.90000
     5,'5           ', 230.0000,1,   1,   1,   1,1.03395,  -8.6679,1.10000,0.90000,1.10000,0.90000
     6,'6           ', 230.0000,1,   1,   1,   1,1.03194,  -7.9636,1.10000,0.90000,1.10000,0.90000
     7,'7           ', 230.0000,1,   1,   1,   1,1.02166, -10.0746,1.10000,0.90000,1.10000,0.90000
     8,'8           ', 230.0000,1,   1,   1,   1,1.02074, -10.5625,1.10000,0.90000,1.10000,0.90000
     9,'9           ', 230.0000,1,   1,   1,   1,1.03840, -10.4164,1.10000,0.90000,1.10000,0.90000
    10,'10          ', 230.0000,1,   1,   1,   1,1.03961,  -5.7341,1.10000,0.90000,1.10000,0.90000
    11,'11          ', 230.0000,1,   1,   1,   1,1.03584,  -6.4962,1.10000,0.90000,1.10000,0.90000
    12,'12          ', 230.0000,1,   1,   1,   1,1.02356,  -6.5169,1.10000,0.90000,1.10000,0.90000
    13,'13          ', 230.0000,1,   1,   1,   1,1.03682,  -6.4368,1.10000,0.90000,1.10000,0.90000
    14,'14          ', 230.0000,1,   1,   1,   1,1.03424,  -8.0850,1.10000,0.90000,1.10000,0.90000
    15,'15          ', 230.0000,1,   1,   1,   1,1.02804,  -8.5983,1.10000,0.90000,1.10000,0.90000
    16,'16          ', 230.0000,1,   1,   1,   1,1.03980,  -7.2655,1.10000,0.90000,1.10000,0.90000
    17,'17          ', 230.0000,1,   1,   1,   1,1.04260,  -8.1904,1.10000,0.90000,1.10000,0.90000
    18,'18          ', 230.0000,1,   1,   1,   1,1.04177,  -8.9831,1.10000,0.90000,1.10000,0.90000
    19,'19          ', 230.0000,1,   1,   1,   1,1.05406,  -2.6764,1.10000,0.90000,1.10000,0.90000
    20,'20          ', 230.0000,1,   1,   1,   1,0.99303,  -4.0741,1.10000,0.90000,1.10000,0.90000
    21,'21          ', 230.0000,1,   1,   1,   1,1.03635,  -4.9741,1.10000,0.90000,1.10000,0.90000
    22,'22          ', 230.0000,1,   1,   1,   1,1.05049,  -0.6371,1.10000,0.90000,1.10000,0.90000
    23,'23          ', 230.0000,1,   1,   1,   1,1.04335,  -0.8974,1.10000,0.90000,1.10000,0.90000
    24,'24          ', 230.0000,1,   1,   1,   1,1.04404,  -7.1850,1.10000,0.90000,1.10000,0.90000
    25,'25          ', 230.0000,1,   1,   1,   1,1.06185,  -4.9509,1.10000,0.90000,1.10000,0.90000
    26,'26          ', 230.0000,1,   1,   1,   1,1.05731,  -6.2630,1.10000,0.90000,1.10000,0.90000
    27,'27          ', 230.0000,1,   1,   1,   1,1.04476,  -8.2888,1.10000,0.90000,1.10000,0.90000
    28,'28          ', 230.0000,1,   1,   1,   1,1.05310,  -2.7685,1.10000,0.90000,1.10000,0.90000
    29,'29          ', 230.0000,1,   1,   1,   1,1.05215,  -0.0193,1.10000,0.90000,1.10000,0.90000
    30,'30          ', 230.0000,2,   1,   1,   1,1.04800,  -3.9310,1.10000,0.90000,1.10000,0.90000
    31,'31          ', 230.0000,3,   1,   1,   1,1.00000,   0.0000,1.10000,0.90000,1.10000,0.90000
    32,'32          ', 230.0000,2,   1,   1,   1,1.00000,   1.9551,1.10000,0.90000,1.10000,0.90000
    33,'33          ', 230.0000,2,   1,   1,   1,1.00000,   2.5088,1.10000,0.90000,1.10000,0.90000
    34,'34          ', 230.0000,2,   1,   1,   1,1.01200,   1.1137,1.10000,0.90000,1.10000,0.90000
    35,'35          ', 230.0000,2,   1,   1,   1,1.04900,   4.3228,1.10000,0.90000,1.10000,0.90000
    36,'36          ', 230.0000,2,   1,   1,   1,1.05000,   7.0805,1.10000,0.90000,1.10000,0.90000
    37,'37          ', 230.0000,2,   1,   1,   1,1.02800,   1.8106,1.10000,0.90000,1.10000,0.90000
    38,'38          ', 230.0000,2,   1,   1,   1,1.02700,   7.0305,1.10000,0.90000,1.10000,0.90000
    39,'39          ', 230.0000,2,   1,   1,   1,1.03000, -10.2554,1.10000,0.90000,1.10000,0.90000
0 / END OF BUS DATA, BEGIN LOAD DATA
@!   I,'ID',STAT,AREA,ZONE,      PL,        QL,        IP,        IQ,        YP,        YQ, OWNER,SCALE,INTRPT,  DGENP,     DGENQ,DGENF,'  LOAD TYPE '
     1,'1 ',   1,   1,   1,     0.000,     0.000,     0.000,     0.000,     0.000,     0.000,   1,    1,  0,     0.000,     0.000,    0,'            '
     2,'1 ',   1,   1,   1,     0.000,     0.000,     0.000,     0.000,     0.000,     0.000,   1,    1,  0,     0.000,     0.000,    0,'            '
     3,'1 ',   1,   1,   1,   322.000,     2.400,     0.000,     0.000,     0.000,     0.000,   1,    1,  0,     0.000,     0.000,    0,'            '
     4,'1 ',   1,   1,   1,   500.000,   184.000,     0.000,     0.000,     0.000,     0.000,   1,    1,  0,     0.000,     0.000,    0,'            '
     5,'1 ',   1,   1,   1,     0.000,     0.000,     0.000,     0.000,     0.000,     0.000,   1,    1,  0,     0.000,     0.000,    0,'            '
     6,'1 ',   1,   1,   1,     0.000,     0.000,     0.000,     0.000,     0.000,     0.000,   1,    1,  0,     0.000,     0.000,    0,'            '
     7,'1 ',   1,   1,   1,   233.800,    84.000,     0.000,     0.000,     0.000,     0.000,   1,    1,  0,     0.000,     0.000,    0,'            '
     8,'1 ',   1,   1,   1,   522.000,   176.000,     0.000,     0.000,     0.000,     0.000,   1,    1,  0,     0.000,     0.000,    0,'            '
     9,'1 ',   1,   1,   1,     0.000,     0.000,     0.000,     0.000,     0.000,     0.000,   1,    1,  0,     0.000,     0.000,    0,'            '
    10,'1 ',   1,   1,   1,     0.000,     0.000,     0.000,     0.000,     0.000,     0.000,   1,    1,  0,     0.000,     0.000,    0,'            '
    11,'1 ',   1,   1,   1,     0.000,     0.000,     0.000,     0.000,     0.000,     0.000,   1,    1,  0,     0.000,     0.000,    0,'            '
    12,'1 ',   1,   1,   1,     7.500,    88.000,     0.000,     0.000,     0.000,     0.000,   1,    1,  0,     0.000,     0.000,    0,'            '
    13,'1 ',   1,   1,   1,     0.000,     0.000,     0.000,     0.000,     0.000,     0.000,   1,    1,  0,     0.000,     0.000,    0,'            '
    14,'1 ',   1,   1,   1,     0.000,     0.000,     0.000,     0.000,     0.000,     0.000,   1,    1,  0,     0.000,     0.000,    0,'            '
    15,'1 ',   1,   1,   1,   320.000,   153.000,     0.000,     0.000,     0.000,     0.000,   1,    1,  0,     0.000,     0.000,    0,'            '
    16,'1 ',   1,   1,   1,   329.400,    32.300,     0.000,     0.000,     0.000,     0.000,   1,    1,  0,     0.000,     0.000,    0,'            '
    17,'1 ',   1,   1,   1,     0.000,     0.000,     0.000,     0.000,     0.000,     0.000,   1,    1,  0,     0.000,     0.000,    0,'            '
    18,'1 ',   1,   1,   1,   158.000,    30.000,     0.000,     0.000,     0.000,     0.000,   1,    1,  0,     0.000,     0.000,    0,'            '
    19,'1 ',   1,   1,   1,     0.000,     0.000,     0.000,     0.000,     0.000,     0.000,   1,    1,  0,     0.000,     0.000,    0,'            '
    20,'1 ',   1,   1,   1,   680.000,   103.000,     0.000,     0.000,     0.000,     0.000,   1,    1,  0,     0.000,     0.000,    0,'            '
    21,'1 ',   1,   1,   1,   274.000,   115.000,     0.000,     0.000,     0.000,     0.000,   1,    1,  0,     0.000,     0.000,    0,'            '
    22,'1 ',   1,   1,   1,     0.000,     0.000,     0.000,     0.000,     0.000,     0.000,   1,    1,  0,     0.000,     0.000,    0,'            '
    23,'1 ',   1,   1,   1,   274.500,    84.600,     0.000,     0.000,     0.000,     0.000,   1,    1,  0,     0.000,     0.000,    0,'            '
    24,'1 ',   1,   1,   1,   308.600,   -92.200,     0.000,     0.000,     0.000,     0.000,   1,    1,  0,     0.000,     0.000,    0,'            '
    25,'1 ',   1,   1,   1,   224.000,    47.200,     0.000,     0.000,     0.000,     0.000,   1,    1,  0,     0.000,     0.000,    0,'            '
    26,'1 ',   1,   1,   1,   139.000,    17.000,     0.000,     0.000,     0.000,     0.000,   1,    1,  0,     0.000,     0.000,    0,'            '
    27,'1 ',   1,   1,   1,   281.000,    75.500,     0.000,     0.000,     0.000,     0.000,   1,    1,  0,     0.000,     0.000,    0,'            '
    28,'1 ',   1,   1,   1,   206.000,    27.600,     0.000,     0.000,     0.000,     0.000,   1,    1,  0,     0.000,     0.000,    0,'            '
    29,'1 ',   1,   1,   1,   283.500,    26.900,     0.000,     0.000,     0.000,     0.000,   1,    1,  0,     0.000,     0.000,    0,'            '
    31,'1 ',   1,   1,   1,     9.200,     4.600,     0.000,     0.000,     0.000,     0.000,   1,    1,  0,     0.000,     0.000,    0,'            '
    39,'1 ',   1,   1,   1,  1104.000,   250.000,     0.000,     0.000,     0.000,     0.000,   1,    1,  0,     0.000,     0.000,    0,'            '
0 / END OF LOAD DATA, BEGIN FIXED SHUNT DATA
@!   I,'ID',STATUS,  GL,        BL
     4,' 1',1,     0.000,   100.000
     5,' 1',1,     0.000,   200.000
0 / END OF FIXED SHUNT DATA, BEGIN GENERATOR DATA
@!   I,'ID',      PG,        QG,        QT,        QB,     VS,    IREG,NREG,     MBASE,     ZR,         ZX,         RT,         XT,     GTAP,STAT, RMPCT,      PT,        PB,BASLOD,O1,    F1,  O2,    F2,  O3,    F3,  O4,    F4,WMOD, WPF
    30,'1 ',   250.000,   115.003,   800.000,  -500.000,1.04800,    30,   0,   250.000, 0.00000E+0, 5.00000E-2, 0.00000E+0, 0.00000E+0,1.00000,1,  100.0,  9999.900,     0.000, 0,   1,1.0000
    31,'1 ',   597.898,    35.153,   800.000,  -500.000,1.00000,    31,   0,   600.000, 0.00000E+0, 5.00000E-2, 0.00000E+0, 0.00000E+0,1.00000,1,  100.0,  9999.900,     0.000, 0,   1,1.0000
    32,'1 ',   650.000,   185.699,   800.000,  -500.000,1.00000,    32,   0,   650.000, 0.00000E+0, 9.00000E-2, 0.00000E+0, 0.00000E+0,1.00000,1,  100.0,  9999.900,     0.000, 0,   1,1.0000
    33,'1 ',   632.000,   102.169,   800.000,  -500.000,1.00000,    33,   0,   650.000, 0.00000E+0, 7.00000E-2, 0.00000E+0, 0.00000E+0,1.00000,1,  100.0,  9999.900,     0.000, 0,   1,1.0000
    34,'1 ',   508.000,   153.702,   800.000,  -300.000,1.01200,    34,   0,   525.000, 0.00000E+0, 8.90000E-2, 0.00000E+0, 0.00000E+0,1.00000,1,  100.0,  9999.900,     0.000, 0,   1,1.0000
    35,'1 ',   650.000,   205.178,   800.000,  -500.000,1.04900,    35,   0,   650.000, 0.00000E+0, 8.00000E-2, 0.00000E+0, 0.00000E+0,1.00000,1,  100.0,  9999.900,     0.000, 0,   1,1.0000
    36,'1 ',   560.000,    54.347,   800.000,  -500.000,1.05000,    36,   0,   560.000, 0.00000E+0, 8.80000E-2, 0.00000E+0, 0.00000E+0,1.00000,1,  100.0,  9999.900,     0.000, 0,   1,1.0000
    37,'1 ',   540.000,   -17.259,   800.000,  -500.000,1.02800,    37,   0,   550.000, 0.00000E+0, 9.00000E-2, 0.00000E+0, 0.00000E+0,1.00000,1,  100.0,  9999.900,     0.000, 0,   1,1.0000
    38,'1 ',   830.000,    11.885,   800.000,  -500.000,1.02700,    38,   0,   850.000, 0.00000E+0, 9.00000E-2, 0.00000E+0, 0.00000E+0,1.00000,1,  100.0,  9999.900,     0.000, 0,   1,1.0000
    39,'1 ',  1000.000,    35.800,  1500.000, -1000.000,1.03000,    39,   0,  2000.000, 0.00000E+0, 8.00000E-2, 0.00000E+0, 0.00000E+0,1.00000,1,  100.0,  9999.900,     0.000, 0,   1,1.0000
0 / END OF GENERATOR DATA, BEGIN BRANCH DATA
@!   I,     J,'CKT',      R,           X,       B,                   'N A M E'                 ,  RATE1,  RATE2,  RATE3,  RATE4,  RATE5,  RATE6,  RATE7,  RATE8,  RATE9, RATE10, RATE11, RATE12,   GI,      BI,      GJ,      BJ,STAT,MET, LEN,  O1,  F1,    O2,  F2,    O3,  F3,    O4,  F4
     1,     2,'1 ', 3.50000E-03, 4.11000E-02,0.69870,'                                        ',   0.00,   0.00,   1.00,   0.00,   0.00,   0.00,   0.00,   0.00,   0.00,   0.00,   0.00,   0.00, 0.00000, 0.00000, 0.00000, 0.00000,1,1,  0.00,   1,1.0000
     1,    39,'1 ', 1.00000E-03, 2.50000E-02,0.75000,'                                        ',   0.00,   0.00,   1.00,   0.00,   0.00,   0.00,   0.00,   0.00,   0.00,   0.00,   0.00,   0.00, 0.00000, 0.00000, 0.00000, 0.00000,1,1,  0.00,   1,1.0000
     2,     3,'1 ', 1.30000E-03, 1.51000E-02,0.25720,'                                        ',   0.00,   0.00,   1.00,   0.00,   0.00,   0.00,   0.00,   0.00,   0.00,   0.00,   0.00,   0.00, 0.00000, 0.00000, 0.00000, 0.00000,1,1,  0.00,   1,1.0000
     2,    25,'1 ', 7.00000E-03, 8.60000E-03,0.14600,'                                        ',   0.00,   0.00,   1.00,   0.00,   0.00,   0.00,   0.00,   0.00,   0.00,   0.00,   0.00,   0.00, 0.00000, 0.00000, 0.00000, 0.00000,1,1,  0.00,   1,1.0000
     3,     4,'1 ', 1.30000E-03, 2.13000E-02,0.22140,'                                        ',   0.00,   0.00,   1.00,   0.00,   0.00,   0.00,   0.00,   0.00,   0.00,   0.00,   0.00,   0.00, 0.00000, 0.00000, 0.00000, 0.00000,1,1,  0.00,   1,1.0000
     3,    18,'1 ', 1.10000E-03, 1.33000E-02,0.21380,'                                        ',   0.00,   0.00,   1.00,   0.00,   0.00,   0.00,   0.00,   0.00,   0.00,   0.00,   0.00,   0.00, 0.00000, 0.00000, 0.00000, 0.00000,1,1,  0.00,   1,1.0000
     4,     5,'1 ', 8.00000E-04, 1.28000E-02,0.13420,'                                        ',   0.00,   0.00,   1.00,   0.00,   0.00,   0.00,   0.00,   0.00,   0.00,   0.00,   0.00,   0.00, 0.00000, 0.00000, 0.00000, 0.00000,1,1,  0.00,   1,1.0000
     4,    14,'1 ', 8.00000E-04, 1.29000E-02,0.13820,'                                        ',   0.00,   0.00,   1.00,   0.00,   0.00,   0.00,   0.00,   0.00,   0.00,   0.00,   0.00,   0.00, 0.00000, 0.00000, 0.00000, 0.00000,1,1,  0.00,   1,1.0000
     5,     6,'1 ', 2.00000E-04, 2.60000E-03,0.04340,'                                        ',   0.00,   0.00,   1.00,   0.00,   0.00,   0.00,   0.00,   0.00,   0.00,   0.00,   0.00,   0.00, 0.00000, 0.00000, 0.00000, 0.00000,1,2,  0.00,   1,1.0000
     5,     8,'1 ', 8.00000E-04, 1.12000E-02,0.14760,'                                        ',   0.00,   0.00,   1.00,   0.00,   0.00,   0.00,   0.00,   0.00,   0.00,   0.00,   0.00,   0.00, 0.00000, 0.00000, 0.00000, 0.00000,1,1,  0.00,   1,1.0000
     6,     7,'1 ', 6.00000E-04, 9.20000E-03,0.11300,'                                        ',   0.00,   0.00,   1.00,   0.00,   0.00,   0.00,   0.00,   0.00,   0.00,   0.00,   0.00,   0.00, 0.00000, 0.00000, 0.00000, 0.00000,1,1,  0.00,   1,1.0000
     6,    11,'1 ', 7.00000E-04, 8.20000E-03,0.13890,'                                        ',   0.00,   0.00,   1.00,   0.00,   0.00,   0.00,   0.00,   0.00,   0.00,   0.00,   0.00,   0.00, 0.00000, 0.00000, 0.00000, 0.00000,1,1,  0.00,   1,1.0000
     7,     8,'1 ', 4.00000E-04, 4.60000E-03,0.07800,'                                        ',   0.00,   0.00,   1.00,   0.00,   0.00,   0.00,   0.00,   0.00,   0.00,   0.00,   0.00,   0.00, 0.00000, 0.00000, 0.00000, 0.00000,1,1,  0.00,   1,1.0000
     8,     9,'1 ', 2.30000E-03, 3.63000E-02,0.38040,'                                        ',   0.00,   0.00,   1.00,   0.00,   0.00,   0.00,   0.00,   0.00,   0.00,   0.00,   0.00,   0.00, 0.00000, 0.00000, 0.00000, 0.00000,1,1,  0.00,   1,1.0000
     9,    39,'1 ', 1.00000E-03, 2.50000E-02,1.20000,'                                        ',   0.00,   0.00,   1.00,   0.00,   0.00,   0.00,   0.00,   0.00,   0.00,   0.00,   0.00,   0.00, 0.00000, 0.00000, 0.00000, 0.00000,1,1,  0.00,   1,1.0000
    10,    11,'1 ', 4.00000E-04, 4.30000E-03,0.07290,'                                        ',   0.00,   0.00,   1.00,   0.00,   0.00,   0.00,   0.00,   0.00,   0.00,   0.00,   0.00,   0.00, 0.00000, 0.00000, 0.00000, 0.00000,1,1,  0.00,   1,1.0000
    10,    13,'1 ', 4.00000E-04, 4.30000E-03,0.07290,'                                        ',   0.00,   0.00,   1.00,   0.00,   0.00,   0.00,   0.00,   0.00,   0.00,   0.00,   0.00,   0.00, 0.00000, 0.00000, 0.00000, 0.00000,1,1,  0.00,   1,1.0000
    13,    14,'1 ', 9.00000E-04, 1.01000E-02,0.17230,'                                        ',   0.00,   0.00,   1.00,   0.00,   0.00,   0.00,   0.00,   0.00,   0.00,   0.00,   0.00,   0.00, 0.00000, 0.00000, 0.00000, 0.00000,1,1,  0.00,   1,1.0000
    14,    15,'1 ', 1.80000E-03, 2.17000E-02,0.36600,'                                        ',   0.00,   0.00,   1.00,   0.00,   0.00,   0.00,   0.00,   0.00,   0.00,   0.00,   0.00,   0.00, 0.00000, 0.00000, 0.00000, 0.00000,1,1,  0.00,   1,1.0000
    15,    16,'1 ', 9.00000E-04, 9.40000E-03,0.17100,'                                        ',   0.00,   0.00,   1.00,   0.00,   0.00,   0.00,   0.00,   0.00,   0.00,   0.00,   0.00,   0.00, 0.00000, 0.00000, 0.00000, 0.00000,1,1,  0.00,   1,1.0000
    16,    17,'1 ', 7.00000E-04, 8.90000E-03,0.13420,'                                        ',   0.00,   0.00,   1.00,   0.00,   0.00,   0.00,   0.00,   0.00,   0.00,   0.00,   0.00,   0.00, 0.00000, 0.00000, 0.00000, 0.00000,1,1,  0.00,   1,1.0000
    16,    19,'1 ', 1.60000E-03, 1.95000E-02,0.30400,'                                        ',   0.00,   0.00,   1.00,   0.00,   0.00,   0.00,   0.00,   0.00,   0.00,   0.00,   0.00,   0.00, 0.00000, 0.00000, 0.00000, 0.00000,1,1,  0.00,   1,1.0000
    16,    21,'1 ', 8.00000E-04, 1.35000E-02,0.25480,'                                        ',   0.00,   0.00,   1.00,   0.00,   0.00,   0.00,   0.00,   0.00,   0.00,   0.00,   0.00,   0.00, 0.00000, 0.00000, 0.00000, 0.00000,1,1,  0.00,   1,1.0000
    16,    24,'1 ', 3.00000E-04, 5.90000E-03,0.06800,'                                        ',   0.00,   0.00,   1.00,   0.00,   0.00,   0.00,   0.00,   0.00,   0.00,   0.00,   0.00,   0.00, 0.00000, 0.00000, 0.00000, 0.00000,1,1,  0.00,   1,1.0000
    17,    18,'1 ', 7.00000E-04, 8.20000E-03,0.13190,'                                        ',   0.00,   0.00,   1.00,   0.00,   0.00,   0.00,   0.00,   0.00,   0.00,   0.00,   0.00,   0.00, 0.00000, 0.00000, 0.00000, 0.00000,1,1,  0.00,   1,1.0000
    17,    27,'1 ', 1.30000E-03, 1.73000E-02,0.32160,'                                        ',   0.00,   0.00,   1.00,   0.00,   0.00,   0.00,   0.00,   0.00,   0.00,   0.00,   0.00,   0.00, 0.00000, 0.00000, 0.00000, 0.00000,1,1,  0.00,   1,1.0000
    21,    22,'1 ', 8.00000E-04, 1.40000E-02,0.25650,'                                        ',   0.00,   0.00,   1.00,   0.00,   0.00,   0.00,   0.00,   0.00,   0.00,   0.00,   0.00,   0.00, 0.00000, 0.00000, 0.00000, 0.00000,1,1,  0.00,   1,1.0000
    22,    23,'1 ', 6.00000E-04, 9.60000E-03,0.18460,'                                        ',   0.00,   0.00,   1.00,   0.00,   0.00,   0.00,   0.00,   0.00,   0.00,   0.00,   0.00,   0.00, 0.00000, 0.00000, 0.00000, 0.00000,1,1,  0.00,   1,1.0000
    23,    24,'1 ', 2.20000E-03, 3.50000E-02,0.36100,'                                        ',   0.00,   0.00,   1.00,   0.00,   0.00,   0.00,   0.00,   0.00,   0.00,   0.00,   0.00,   0.00, 0.00000, 0.00000, 0.00000, 0.00000,1,1,  0.00,   1,1.0000
    25,    26,'1 ', 3.20000E-03, 3.23000E-02,0.51300,'                                        ',   0.00,   0.00,   1.00,   0.00,   0.00,   0.00,   0.00,   0.00,   0.00,   0.00,   0.00,   0.00, 0.00000, 0.00000, 0.00000, 0.00000,1,1,  0.00,   1,1.0000
    26,    27,'1 ', 1.40000E-03, 1.47000E-02,0.23960,'                                        ',   0.00,   0.00,   1.00,   0.00,   0.00,   0.00,   0.00,   0.00,   0.00,   0.00,   0.00,   0.00, 0.00000, 0.00000, 0.00000, 0.00000,1,1,  0.00,   1,1.0000
    26,    28,'1 ', 4.30000E-03, 4.74000E-02,0.78020,'                                        ',   0.00,   0.00,   1.00,   0.00,   0.00,   0.00,   0.00,   0.00,   0.00,   0.00,   0.00,   0.00, 0.00000, 0.00000, 0.00000, 0.00000,1,1,  0.00,   1,1.0000
    26,    29,'1 ', 5.70000E-03, 6.25000E-02,1.02900,'                                        ',   0.00,   0.00,   1.00,   0.00,   0.00,   0.00,   0.00,   0.00,   0.00,   0.00,   0.00,   0.00, 0.00000, 0.00000, 0.00000, 0.00000,1,1,  0.00,   1,1.0000
    28,    29,'1 ', 1.40000E-03, 1.51000E-02,0.24900,'                                        ',   0.00,   0.00,   1.00,   0.00,   0.00,   0.00,   0.00,   0.00,   0.00,   0.00,   0.00,   0.00, 0.00000, 0.00000, 0.00000, 0.00000,1,1,  0.00,   1,1.0000
0 / END OF BRANCH DATA, BEGIN SYSTEM SWITCHING DEVICE DATA
@!   I,     J,'CKT',          X,  RATE1,  RATE2,  RATE3,  RATE4,  RATE5,  RATE6,  RATE7,  RATE8,  RATE9, RATE10, RATE11, RATE12, STAT,NSTAT,  MET,STYPE,'NAME'
0 / END OF SYSTEM SWITCHING DEVICE DATA, BEGIN TRANSFORMER DATA
@!   I,     J,     K,'CKT',CW,CZ,CM,     MAG1,        MAG2,NMETR,               'N A M E',               STAT,O1,  F1,    O2,  F2,    O3,  F3,    O4,  F4,     'VECGRP', ZCOD
@!   R1-2,       X1-2, SBASE1-2,     R2-3,       X2-3, SBASE2-3,     R3-1,       X3-1, SBASE3-1, VMSTAR,   ANSTAR
@!WINDV1, NOMV1,   ANG1, RATE1-1, RATE1-2, RATE1-3, RATE1-4, RATE1-5, RATE1-6, RATE1-7, RATE1-8, RATE1-9,RATE1-10,RATE1-11,RATE1-12,COD1,CONT1,NOD1,  RMA1,   RMI1,   VMA1,   VMI1, NTP1,TAB1, CR1,    CX1,  CNXA1
@!WINDV2, NOMV2,   ANG2, RATE2-1, RATE2-2, RATE2-3, RATE2-4, RATE2-5, RATE2-6, RATE2-7, RATE2-8, RATE2-9,RATE2-10,RATE2-11,RATE2-12,COD2,CONT2,NOD2,  RMA2,   RMI2,   VMA2,   VMI2, NTP2,TAB2, CR2,    CX2,  CNXA2
@!WINDV3, NOMV3,   ANG3, RATE3-1, RATE3-2, RATE3-3, RATE3-4, RATE3-5, RATE3-6, RATE3-7, RATE3-8, RATE3-9,RATE3-10,RATE3-11,RATE3-12,COD3,CONT3,NOD3,  RMA3,   RMI3,   VMA3,   VMI3, NTP3,TAB3, CR3,    CX3,  CNXA3
     2,    30,     0,'1 ', 1, 1, 1, 0.00000E+00, 0.00000E+00,2,'                                        ',1,   1,1.0000,   0,1.0000,   0,1.0000,   0,1.0000,'            '
 0.00000E+00, 1.81000E-02, 100.00
1.02500,  1.000,  0.000,    0.00,    0.00,    0.00,    0.00,    0.00,    0.00,    0.00,    0.00,    0.00,    0.00,    0.00,    0.00, 0,      0,   0,1.20000,0.80000,1.20000,0.80000,   8, 0,0.00000,0.00000, 0.000
1.00000,   1.00
    31,     6,     0,'1 ', 1, 1, 1, 0.00000E+00, 0.00000E+00,2,'                                        ',1,   1,1.0000,   0,1.0000,   0,1.0000,   0,1.0000,'            '
 0.00000E+00, 2.50000E-02, 100.00
0.97143,  1.000,  0.000,    0.00,    0.00,    0.00,    0.00,    0.00,    0.00,    0.00,    0.00,    0.00,    0.00,    0.00,    0.00, 1,      6,   0,1.20000,0.80000,1.17000,0.98000,   8, 0,0.00000,0.00000, 0.000
1.00000,   1.00
    10,    32,     0,'1 ', 1, 1, 1, 0.00000E+00, 0.00000E+00,2,'                                        ',1,   1,1.0000,   0,1.0000,   0,1.0000,   0,1.0000,'            '
 0.00000E+00, 2.00000E-02, 100.00
1.07000,  1.000,  0.000,    0.00,    0.00,    0.00,    0.00,    0.00,    0.00,    0.00,    0.00,    0.00,    0.00,    0.00,    0.00, 0,      0,   0,1.20000,0.80000,1.20000,0.80000,   8, 0,0.00000,0.00000, 0.000
1.00000,   1.00
    12,    11,     0,'1 ', 1, 1, 1, 0.00000E+00, 0.00000E+00,2,'                                        ',1,   1,1.0000,   0,1.0000,   0,1.0000,   0,1.0000,'            '
 1.60000E-03, 4.35000E-02, 100.00
1.00600,  1.000,  0.000,    0.00,    0.00,    0.00,    0.00,    0.00,    0.00,    0.00,    0.00,    0.00,    0.00,    0.00,    0.00, 0,      0,   0,1.20000,0.80000,1.20000,0.80000,   8, 0,0.00000,0.00000, 0.000
1.00000,   1.00
    12,    13,     0,'1 ', 1, 1, 1, 0.00000E+00, 0.00000E+00,2,'                                        ',1,   1,1.0000,   0,1.0000,   0,1.0000,   0,1.0000,'            '
 1.60000E-03, 4.35000E-02, 100.00
1.00600,  1.000,  0.000,    0.00,    0.00,    0.00,    0.00,    0.00,    0.00,    0.00,    0.00,    0.00,    0.00,    0.00,    0.00, 0,      0,   0,1.20000,0.80000,1.20000,0.80000,   8, 0,0.00000,0.00000, 0.000
1.00000,   1.00
    19,    20,     0,'1 ', 1, 1, 1, 0.00000E+00, 0.00000E+00,2,'                                        ',1,   1,1.0000,   0,1.0000,   0,1.0000,   0,1.0000,'            '
 7.00000E-04, 1.38000E-02, 100.00
1.06000,  1.000,  0.000,    0.00,    0.00,    0.00,    0.00,    0.00,    0.00,    0.00,    0.00,    0.00,    0.00,    0.00,    0.00, 0,      0,   0,1.20000,0.80000,1.20000,0.80000,   8, 0,0.00000,0.00000, 0.000
1.00000,   1.00
    19,    33,     0,'1 ', 1, 1, 1, 0.00000E+00, 0.00000E+00,2,'                                        ',1,   1,1.0000,   0,1.0000,   0,1.0000,   0,1.0000,'            '
 7.00000E-04, 1.42000E-02, 100.00
1.07000,  1.000,  0.000,    0.00,    0.00,    0.00,    0.00,    0.00,    0.00,    0.00,    0.00,    0.00,    0.00,    0.00,    0.00, 0,      0,   0,1.20000,0.80000,1.20000,0.80000,   8, 0,0.00000,0.00000, 0.000
1.00000,   1.00
    20,    34,     0,'1 ', 1, 1, 1, 0.00000E+00, 0.00000E+00,2,'                                        ',1,   1,1.0000,   0,1.0000,   0,1.0000,   0,1.0000,'            '
 9.00000E-04, 1.80000E-02, 100.00
1.00900,  1.000,  0.000,    0.00,    0.00,    0.00,    0.00,    0.00,    0.00,    0.00,    0.00,    0.00,    0.00,    0.00,    0.00, 0,      0,   0,1.20000,0.80000,1.20000,0.80000,   8, 0,0.00000,0.00000, 0.000
1.00000,   1.00
    22,    35,     0,'1 ', 1, 1, 1, 0.00000E+00, 0.00000E+00,2,'                                        ',1,   1,1.0000,   0,1.0000,   0,1.0000,   0,1.0000,'            '
 0.00000E+00, 1.43000E-02, 100.00
1.02500,  1.000,  0.000,    0.00,    0.00,    0.00,    0.00,    0.00,    0.00,    0.00,    0.00,    0.00,    0.00,    0.00,    0.00, 0,      0,   0,1.20000,0.80000,1.20000,0.80000,   8, 0,0.00000,0.00000, 0.000
1.00000,   1.00
    23,    36,     0,'1 ', 1, 1, 1, 0.00000E+00, 0.00000E+00,2,'                                        ',1,   1,1.0000,   0,1.0000,   0,1.0000,   0,1.0000,'            '
 5.00000E-04, 2.72000E-02, 100.00
1.00000,  1.000,  0.000,    0.00,    0.00,    0.00,    0.00,    0.00,    0.00,    0.00,    0.00,    0.00,    0.00,    0.00,    0.00, 0,      0,   0,1.20000,0.80000,1.20000,0.80000,   8, 0,0.00000,0.00000, 0.000
1.00000,   1.00
    25,    37,     0,'1 ', 1, 1, 1, 0.00000E+00, 0.00000E+00,2,'                                        ',1,   1,1.0000,   0,1.0000,   0,1.0000,   0,1.0000,'            '
 6.00000E-04, 2.32000E-02, 100.00
1.02500,  1.000,  0.000,    0.00,    0.00,    0.00,    0.00,    0.00,    0.00,    0.00,    0.00,    0.00,    0.00,    0.00,    0.00, 0,      0,   0,1.20000,0.80000,1.20000,0.80000,   8, 0,0.00000,0.00000, 0.000
1.00000,   1.00
    29,    38,     0,'1 ', 1, 1, 1, 0.00000E+00, 0.00000E+00,2,'                                        ',1,   1,1.0000,   0,1.0000,   0,1.0000,   0,1.0000,'            '
 8.00000E-04, 1.56000E-02, 100.00
1.02500,  1.000,  0.000,    0.00,    0.00,    0.00,    0.00,    0.00,    0.00,    0.00,    0.00,    0.00,    0.00,    0.00,    0.00, 0,      0,   0,1.20000,0.80000,1.20000,0.80000,   8, 0,0.00000,0.00000, 0.000
1.00000,   1.00
0 / END OF TRANSFORMER DATA, BEGIN AREA DATA
@! I,   ISW,    PDES,     PTOL,    'ARNAME'
   1,     0,    0.000,    1.000,'1           '
0 / END OF AREA DATA, BEGIN TWO-TERMINAL DC DATA
@!  'NAME',   MDC,    RDC,     SETVL,    VSCHD,    VCMOD,    RCOMP,   DELTI,METER   DCVMIN,CCCITMX,CCCACC
@! IPR,NBR,  ANMXR,  ANMNR,   RCR,    XCR,   EBASR,  TRR,    TAPR,   TMXR,   TMNR,   STPR,    ICR,NDR,   IFR,   ITR,'IDR', XCAPR
@! IPI,NBI,  ANMXI,  ANMNI,   RCI,    XCI,   EBASI,  TRI,    TAPI,   TMXI,   TMNI,   STPI,    ICI,NDI,   IFI,   ITI,'IDI', XCAPI
0 / END OF TWO-TERMINAL DC DATA, BEGIN VSC DC LINE DATA
@!  'NAME',   MDC,  RDC,   O1,  F1,    O2,  F2,    O3,  F3,    O4,  F4
@!IBUS,TYPE,MODE,  DCSET,  ACSET,  ALOSS,  BLOSS,MINLOSS,  SMAX,   IMAX,   PWF,     MAXQ,   MINQ, VSREG,NREG, RMPCT
0 / END OF VSC DC LINE DATA, BEGIN IMPEDANCE CORRECTION DATA
@!I,  T1,   Re(F1), Im(F1),   T2,   Re(F2), Im(F2),   T3,   Re(F3), Im(F3),   T4,   Re(F4), Im(F4),   T5,   Re(F5), Im(F5),   T6,   Re(F6), Im(F6)
@!    T7,   Re(F7), Im(F7),   T8,   Re(F8), Im(F8),   T9,   Re(F9), Im(F9),   T10, Re(F10),Im(F10),   T11, Re(F11),Im(F11),   T12, Re(F12),Im(F12)
@!      ...
0 / END OF IMPEDANCE CORRECTION DATA, BEGIN MULTI-TERMINAL DC DATA
@!  'NAME',    NCONV,NDCBS,NDCLN,  MDC, VCONV,   VCMOD, VCONVN
@!  IB, N,  ANGMX,  ANGMN,   RC,     XC,     EBAS,   TR,    TAP,    TPMX,   TPMN,   TSTP,   SETVL,   DCPF,  MARG,CNVCOD
@!IDC, IB,AREA,ZONE,   'DCNAME',  IDC2, RGRND,OWNER
@!IDC,JDC,'DCCKT',MET,  RDC,      LDC
0 / END OF MULTI-TERMINAL DC DATA, BEGIN MULTI-SECTION LINE DATA
@!   I,     J,'ID',MET,DUM1,  DUM2,  DUM3,  DUM4,  DUM5,  DUM6,  DUM7,  DUM8,  DUM9
0 / END OF MULTI-SECTION LINE DATA, BEGIN ZONE DATA
@! I,   'ZONAME'
   1,'1           '
0 / END OF ZONE DATA, BEGIN INTER-AREA TRANSFER DATA
@!ARFROM,ARTO,'TRID',PTRAN
0 / END OF INTER-AREA TRANSFER DATA, BEGIN OWNER DATA
@! I,   'OWNAME'
   1,'1           '
0 / END OF OWNER DATA, BEGIN FACTS DEVICE DATA
@!  'NAME',         I,     J,MODE,PDES,   QDES,  VSET,   SHMX,   TRMX,   VTMN,   VTMX,   VSMX,    IMX,   LINX,   RMPCT,OWNER,  SET1,    SET2,VSREF, FCREG,NREG,   'MNAME'
0 / END OF FACTS DEVICE DATA, BEGIN SWITCHED SHUNT DATA
@!   I,'ID',MODSW,ADJM,ST, VSWHI,  VSWLO, SWREG,NREG, RMPCT,   'RMIDNT',     BINIT,S1,N1,    B1, S2,N2,    B2, S3,N3,    B3, S4,N4,    B4, S5,N5,    B5, S6,N6,    B6, S7,N7,    B7, S8,N8,    B8
0 / END OF SWITCHED SHUNT DATA, BEGIN GNE DATA
@!  'NAME',        'MODEL',     NTERM,BUS1...BUSNTERM,NREAL,NINTG,NCHAR
@!ST,OWNER,NMETR
@! REAL1...REAL(MIN(10,NREAL))
@! INTG1...INTG(MIN(10,NINTG))
@! CHAR1...CHAR(MIN(10,NCHAR))
0 / END OF GNE DATA, BEGIN INDUCTION MACHINE DATA
@!   I,'ID',ST,SC,DC,AREA,ZONE,OWNER,TC,BC, MBASE,RATEKV,PC,  PSET,     H,      A,      B,      D,      E,     RA,        XA,        XM,        R1,        X1,        R2,        X2,        X3,       E1,    SE1,   E2,    SE2,   IA1,   IA2, XAMULT
0 / END OF INDUCTION MACHINE DATA, BEGIN SUBSTATION DATA
0 / END OF SUBSTATION DATA
Q
